#  $Id: wateq4f.dat 6895 2012-08-21 18:10:05Z dlpark $
# Revised arsenic data from Archer and Nordstrom (2002)

SOLUTION_MASTER_SPECIES

Ag       Ag+            0.0     107.868         107.868
Al       Al+3           0.0     26.9815         26.9815
Alkalinity CO3-2        1.0     50.05           50.05
As       H3AsO4        -1.0     74.9216         74.9216
As(+3)   H3AsO3         0.0     74.9216         74.9216
As(+5)   H3AsO4        -1.0     74.9216
B        H3BO3          0.0     10.81           10.81
Ba       Ba+2           0.0     137.34          137.34
Br       Br-            0.0     79.904          79.904
C        CO3-2          2.0     61.0173         12.0111
C(+4)    CO3-2          2.0     61.0173
C(-4)    CH4            0.0     16.042
Ca       Ca+2           0.0     40.08           40.08
Cd       Cd+2           0.0     112.4           112.4
Cl       Cl-            0.0     35.453          35.453
Cs       Cs+            0.0     132.905         132.905
Cu       Cu+2           0.0     63.546          63.546
Cu(+1)   Cu+1           0.0     63.546          
Cu(+2)   Cu+2           0.0     63.546          
E        e-             0.0     0.0             0.0
F        F-             0.0     18.9984         18.9984
Fe       Fe+2           0.0     55.847          55.847
Fe(+2)   Fe+2           0.0     55.847
Fe(+3)   Fe+3           -2.0    55.847
Fulvate  Fulvate-2      0.0     650.            650.
H        H+             -1.     1.008           1.008
H(0)     H2             0.0     1.008
H(1)     H+             -1.     1.008
Humate   Humate-2       0.0     2000.           2000.
I        I-             0.0     126.9044        126.9044
K        K+             0.0     39.102          39.102
Li       Li+            0.0     6.939           6.939
Mg       Mg+2           0.0     24.312          24.312
Mn       Mn+2           0.0     54.938          54.938
Mn(2)    Mn+2           0.0     54.938
Mn(3)    Mn+3           0.0     54.938
Mn(6)    MnO4-2         0.0     54.938
Mn(7)    MnO4-          0.0     54.938
N        NO3-           0.0     14.0067         14.0067
N(-3)    NH4+           0.0     14.0067
N(0)     N2             0.0     14.0067
N(+3)    NO2-           0.0     14.0067
N(+5)    NO3-           0.0     14.0067
Na       Na+            0.0     22.9898         22.9898
Ni       Ni+2           0.0     58.71           58.71
O        H2O            0.0     16.00           16.00
O(-2)    H2O            0.0     18.016
O(0)     O2             0.0     16.00
P        PO4-3          2.0     30.9738         30.9738
Pb       Pb+2           0.0     207.19          207.19
Rb       Rb+            0.0     85.47           85.47
S        SO4-2          0.0     96.0616         32.064
S(-2)    H2S            0.0     32.064
S(6)     SO4-2          0.0     96.0616
Se       SeO4-2         0.0     78.96           78.96
Se(-2)   HSe-           0.0     78.96
Se(4)    SeO3-2         0.0     78.96
Se(6)    SeO4-2         0.0     78.96
Si       H4SiO4         0.0     60.0843         28.0843
Sr       Sr+2           0.0     87.62           87.62
Zn       Zn+2           0.0     65.37           65.37
U        UO2+2          0.0     238.0290        238.0290
U(3)     U+3            0.0     238.0290        238.0290
U(4)     U+4            0.0     238.0290        238.0290
U(5)     UO2+           0.0     238.0290        238.0290
U(6)     UO2+2          0.0     238.0290        238.0290

SOLUTION_SPECIES

#H+ primary master species
        H+ = H+
        log_k           0.0
        -gamma    9.0    0.0

#e- primary master species
        e- = e-
        log_k           0.0

#H2O primary master species
        H2O = H2O
        log_k           0.0

#Ag+ primary master species
        Ag+ = Ag+
        log_k           0.0

#Al+3 primary master species
        Al+3 = Al+3
        log_k           0.0
        -gamma  9.0     0.0 

#H3AsO4 primary master species
        H3AsO4 = H3AsO4
        log_k           0.0

#H3BO3 primary master species
        H3BO3 = H3BO3
        log_k           0.0

#Ba+2 primary master species
        Ba+2 = Ba+2
        log_k           0.0
        -gamma  5.0     0.0 

#Br- primary master species
        Br- = Br-
        log_k           0.0

#CO3-2 primary master species
        CO3-2 = CO3-2
        log_k           0.0
        -gamma  5.4     0.0

#Ca+2 primary master species
        Ca+2 = Ca+2
        log_k           0.0
        -gamma  5.0     0.165

#Cd+2 primary master species
        Cd+2 = Cd+2
        log_k           0.0

#Cl- primary master species
        Cl- = Cl-
        log_k           0.0
        -gamma  3.5     0.015

#Cs+ primary master species
        Cs+ = Cs+
        log_k           0.0

#Cu+2 primary master species
        Cu+2 = Cu+2
        log_k           0.0
        -gamma  6.0     0.0

#F- primary master species
        F- = F-
        log_k           0.0
        -gamma  3.5     0.0 

#Fe+2 primary master species
        Fe+2 = Fe+2
        log_k           0.0
        -gamma  6.0     0.0
        
#Fulvate-2 primary master species
        Fulvate-2 = Fulvate-2
        log_k           0.0

#Humate-2 primary master species
        Humate-2 = Humate-2
        log_k           0.0

#I- primary master species
        I- = I-
        log_k           0.0

#K+ primary master species
        K+ = K+
        log_k           0.0
        -gamma  3.5     0.015

#Li+ primary master species
        Li+ = Li+
        log_k           0.0
        -gamma  6.0     0.0 

#Mg+2 primary master species
        Mg+2 = Mg+2
        log_k           0.0
        -gamma  5.5     0.200

#Mn+2 primary master species
        Mn+2 = Mn+2
        log_k           0.0
        -gamma  6.0     0.0

#NO3- primary master species
        NO3- = NO3-
        log_k           0.0
        -gamma  3.0     0.0 

#Na+ primary master species
        Na+ = Na+
        log_k           0.0
        -gamma  4.0     0.075

#Ni+2 primary master species
        Ni+2 = Ni+2
        log_k           0.0

#PO4-3 primary master species
        PO4-3 = PO4-3
        log_k           0.0
        -gamma  5.0     0.0 

#Pb+2 primary master species
        Pb+2 = Pb+2
        log_k           0.0

#Rb+ primary master species
        Rb+ = Rb+
        log_k           0.0

#SO4-2 primary master species
        SO4-2 = SO4-2
        log_k           0.0
        -gamma  5.0     -0.040

#SeO4-2 primary master species
        SeO4-2 = SeO4-2
        log_k           0.0

#H4SiO4 primary master species
        H4SiO4 = H4SiO4
        log_k           0.0

#Sr+2 primary master species
        Sr+2 = Sr+2
        log_k           0.0
        -gamma  5.26    0.121

#UO2+2 primary master species
        UO2+2 = UO2+2
        log_k           0.0

#Zn+2 primary master species
        Zn+2 = Zn+2
        log_k           0.0
        -gamma  6.0     0.0

#Fe+3 secondary master species  0
        Fe+2 = Fe+3 + e- 
        log_k           -13.020
        delta_h 9.680 kcal
        -gamma  9.0     0.0

#FeOH+2              1
        Fe+3 + H2O = FeOH+2 + H+ 
        log_k           -2.19
        delta_h 10.4 kcal
        -gamma  5.0     0.0        

#FeOH+               2
        Fe+2 + H2O = FeOH+ + H+ 
        log_k           -9.5
        delta_h 13.2 kcal
        -gamma  5.0     0.0   

#Fe(OH)3-            3
        Fe+2 + 3H2O = Fe(OH)3- + 3H+ 
        log_k           -31.0
        delta_h 30.3 kcal
        -gamma  5.0     0.0   

#FeSO4+              4
        Fe+3 + SO4-2 = FeSO4+ 
        log_k           4.04
        delta_h 3.91 kcal
        -gamma  5.0     0.0 

#FeCl+2              5
        Fe+3 + Cl- = FeCl+2 
        log_k           1.48
        delta_h 5.6 kcal
        -gamma  5.0     0.0 

#FeCl2+              6
        Fe+3 + 2Cl- = FeCl2+ 
        log_k           2.13

#FeCl3               7
        Fe+3 + 3Cl- = FeCl3 
        log_k           1.13

#FeSO4               8
        Fe+2 + SO4-2 = FeSO4 
        log_k           2.25
        delta_h 3.23 kcal

#H3SiO4-             13
        H4SiO4 = H3SiO4- + H+ 
        log_k           -9.83
        delta_h 6.12 kcal
        -analytical     -302.3724       -0.050698       15669.69        108.18466       -1119669.0
        -gamma  4.0     0.0 

#H2SiO4-2            14
        H4SiO4 = H2SiO4-2 + 2H+
        log_k           -23.0
        delta_h 17.6 kcal
        -analytical -294.0184   -0.07265        11204.49        108.18466       -1119669.0
        -gamma  5.4     0.0 

#HPO4-2              15
        H+ + PO4-3 = HPO4-2
        log_k           12.346
        delta_h -3.53 kcal
        -gamma  5.0     0.0 

#H2PO4-              16
        2H+ + PO4-3 = H2PO4-
        log_k           19.553
        delta_h -4.52 kcal
        -gamma  5.4     0.0 

#MgF+                22
        Mg+2 + F- = MgF+ 
        log_k           1.82
        delta_h 3.2 kcal
        -gamma  4.5     0.0 

#CaSO4               23
        Ca+2 + SO4-2 = CaSO4 
        log_k           2.3
        delta_h 1.65 kcal

#MgOH+               24
        Mg+2 + H2O = MgOH+ + H+ 
        log_k           -11.44
        delta_h 15.952 kcal
        -gamma  6.5     0.0 

#H3BO3               25
        H3BO3 = H2BO3- + H+
        log_k           -9.24
        delta_h 3.224 kcal
#       -analytical 24.3919    0.012078   -1343.9    -13.2258
        -gamma  2.5     0.0 

#NH3                 26
        NH4+ = NH3 + H+ 
        log_k           -9.252
        delta_h 12.48 kcal
        -analytic    0.6322    -0.001225    -2835.76
        -gamma  2.5     0.0 

#NaHPO4-             30
        Na+ + HPO4-2 = NaHPO4-
        log_k           0.29
        -gamma  5.4     0.0 

#KHPO4-              32
        K+ + HPO4-2 = KHPO4-
        log_k           0.29
        -gamma  5.4     0.0 

#MgHPO4              33
        Mg+2 + HPO4-2 = MgHPO4 
        log_k           2.87
        delta_h 3.3 kcal

#CaHPO4              34
        Ca+2 + HPO4-2 = CaHPO4 
        log_k           2.739
        delta_h 3.3 kcal

#CH4 secondary master species
        CO3-2 + 10 H+ + 8 e- = CH4 + 3 H2O
        log_k           41.071
        delta_h -61.039  kcal

#H2CO3               35
#       HCO3- + H+ = H2CO3 
#       log_k           6.351
#       delta_h -2.247 kcal
#       -analytical     356.3094        0.06091960      -21834.37       -126.8339       1684915.0

#CO2     could be used instead of H2CO3
        CO3-2 + 2 H+ = CO2 + H2O
        log_k           16.681
        delta_h -5.738 kcal
        -analytical     464.1965       0.09344813  -26986.16    -165.75951      2248628.9

#HCO3-               68
        H+ + CO3-2 = HCO3- 
        log_k           10.329
        delta_h -3.561 kcal
        -analytical     107.8871        0.03252849      -5151.79        -38.92561       563713.9
        -gamma  5.4     0.0

#NaCO3-              69
        Na+ + CO3-2 = NaCO3- 
        log_k           1.27
        delta_h 8.91 kcal
        -gamma  5.4     0.0 

#NaHCO3              70
        Na+ + HCO3- = NaHCO3 
        log_k           -0.25

#NaSO4-              71
        Na+ + SO4-2 = NaSO4-
        log_k           0.7
        delta_h 1.12 kcal
        -gamma  5.4     0.0 

#KSO4-               72
        K+ + SO4-2 = KSO4-
        log_k           0.85
        delta_h 2.25 kcal
        -analytical      3.106  0.0   -673.6
        -gamma  5.4     0.0 

#MgCO3               73
        Mg+2 + CO3-2 = MgCO3 
        log_k           2.98
        delta_h 2.713 kcal
        -analytical     0.9910          0.00667

#MgHCO3+             74
        Mg+2 + HCO3- = MgHCO3+
        log_k           1.07
        delta_h 0.79 kcal
        -analytical     -59.215         0.0     2537.455        20.92298        0.0
        -gamma  4.0     0.0 

#MgSO4               75
        Mg+2 + SO4-2 = MgSO4 
        log_k           2.37
        delta_h 4.55 kcal

#CaOH+               76
        Ca+2 + H2O = CaOH+ + H+ 
        log_k           -12.78
        -gamma  6.0     0.0 

#CaHCO3+             77
        Ca+2 + HCO3- = CaHCO3+
        log_k           1.106
        delta_h 2.69 kcal
        -analytical     1209.12         0.31294         -34765.05       -478.782        0.0
        -gamma  6.0     0.0 

#CaCO3               78
        Ca+2 + CO3-2 = CaCO3 
        log_k           3.224
        delta_h 3.545 kcal
        -analytical     -1228.732       -0.299444       35512.75        485.818         0.0

#SrHCO3+             79
        Sr+2 + HCO3- = SrHCO3+ 
        log_k           1.18
        delta_h 6.05 kcal
        -analytical     -3.248  0.014867        0.0     0.0     0.0
        -gamma  5.4     0.0

#AlOH+2              80
        Al+3 + H2O = AlOH+2 + H+ 
        log_k           -5.0
        delta_h 11.49 kcal
        -analytical     -38.253         0.0     -656.27         14.327  0.0
        -gamma  5.4     0.0 

#Al(OH)2+            81
        Al+3 + 2H2O = Al(OH)2+ + 2H+ 
        log_k           -10.1
        delta_h 26.9 kcal
        -analytical     88.5    0.0     -9391.6         -27.121         0.0
        -gamma  5.4     0.0 

#Al(OH)3             336
        Al+3 + 3H2O = Al(OH)3 + 3H+ 
        log_k           -16.9
        delta_h 39.89 kcal
        -analytical     226.374         0.0     -18247.8        -73.597         0.0

#Al(OH)4-            82
        Al+3 + 4H2O = Al(OH)4- + 4H+ 
        log_k           -22.7
        delta_h 42.3 kcal
        -analytical     51.578          0.0     -11168.9        -14.865         0.0
        -gamma  4.5     0.0 

#AlF+2               83
        Al+3 + F- = AlF+2 
        log_k           7.0
        delta_h 1.06 kcal
        -gamma  5.4     0.0 

#AlF2+               84
        Al+3 + 2F- = AlF2+ 
        log_k           12.7
        delta_h 1.98 kcal
        -gamma  5.4     0.0 

#AlF3                85
        Al+3 + 3F- = AlF3 
        log_k           16.8
        delta_h 2.16 kcal

#AlF4-               86
        Al+3 + 4F- = AlF4- 
        log_k           19.4
        delta_h 2.2 kcal
        -gamma  4.5     0.0 

#AlSO4+              87
        Al+3 + SO4-2 = AlSO4+
        log_k           3.5
        delta_h 2.29 kcal
        -gamma  4.5     0.0 

#Al(SO4)2-           88
        Al+3 + 2SO4-2 = Al(SO4)2-
        log_k           5.0
        delta_h 3.11 kcal
        -gamma  4.5     0.0 

#HSO4-               89
        H+ + SO4-2 = HSO4- 
        log_k           1.988
        delta_h 3.85 kcal
        -analytical     -56.889         0.006473        2307.9          19.8858         0.0
        -gamma  4.5     0.0 

#H2S secondary master species   90
        SO4-2 + 10H+ + 8e- = H2S + 4H2O 
        log_k           40.644
        delta_h -65.44 kcal

#HS-                 91
        H2S = HS- + H+ 
        log_k           -6.994
        delta_h 5.3 kcal
        -analytical  11.17   -0.02386  -3279.0
        -gamma  3.5     0.0 

#S-2                 92
        HS- = S-2 + H+ 
        log_k           -12.918
        delta_h 12.1 kcal
        -gamma  5.0     0.0 

#oxy                 93
#       0.5H2O = 0.25O2 + H+ + e- 
#       log_k           -20.780
#       delta_h 34.157000 kcal

#O2 secondary master species
        2H2O = O2 + 4H+ + 4e- 
        log_k           -86.08
        delta_h 134.79 kcal

#H2 secondary master species
        2 H+ + 2 e- = H2
        log_k           -3.15
        delta_h -1.759 kcal

#Fe(OH)2+            102
        Fe+3 + 2H2O = Fe(OH)2+ + 2H+ 
        log_k           -5.67
        delta_h 17.1 kcal
        -gamma  5.4     0.0 

#Fe(OH)3             103
        Fe+3 + 3H2O = Fe(OH)3 + 3H+ 
        log_k           -12.56
        delta_h 24.8 kcal

#Fe(OH)4-            104
        Fe+3 + 4H2O = Fe(OH)4- + 4H+ 
        log_k           -21.6
        delta_h 31.9 kcal
        -gamma  5.4     0.0 

#Fe(OH)2             105
        Fe+2 + 2H2O = Fe(OH)2 + 2H+ 
        log_k           -20.57
        delta_h 28.565 kcal

#FeH2PO4+            120
        Fe+2 + H2PO4- = FeH2PO4+ 
        log_k           2.7
        -gamma  5.4     0.0 

#CaPO4-              121
        Ca+2 + PO4-3 = CaPO4-
        log_k           6.459
        delta_h 3.1 kcal
        -gamma  5.4     0.0 

#CaH2PO4+            122
        Ca+2 + H2PO4- = CaH2PO4+
        log_k           1.408
        delta_h 3.4 kcal
        -gamma  5.4     0.0 

#MgPO4-              123
        Mg+2 + PO4-3 = MgPO4-
        log_k           6.589
        delta_h 3.1 kcal
        -gamma  5.4     0.0 

#MgH2PO4+            124
        Mg+2 + H2PO4- = MgH2PO4+
        log_k           1.513
        delta_h 3.4 kcal
        -gamma  5.4     0.0 

#LiSO4-              126
        Li+ + SO4-2 = LiSO4-
        log_k           0.64
        -gamma  5.0     0.0 

#N2  secondary master species
        2 NO3- + 12 H+ + 10 e- = N2 + 6 H2O
        log_k           207.080
        delta_h -312.130 kcal

#NH4 secondary master species 127
        NO3- + 10H+ + 8e- = NH4+ + 3H2O 
        log_k           119.077
        delta_h -187.055 kcal

#SrOH+               129
        Sr+2 + H2O = SrOH+ + H+ 
        log_k           -13.29
        -gamma  5.0     0.0

#BaOH+               130
        Ba+2 + H2O = BaOH+ + H+ 
        log_k           -13.47
        -gamma  5.0     0.0 

#NH4SO4-             131
        NH4+ + SO4-2 = NH4SO4- 
        log_k           1.11
        -gamma  5.0     0.0

#SrCO3               135
        Sr+2 + CO3-2 = SrCO3 
        log_k           2.81
        delta_h 5.22 kcal
        -analytical     -1.019          0.012826        0.0     0.0     0.0
        -gamma  5.0     0.0

#O2Sato              136
#       0.5H2O = 0.25O2(aq) + H+ + e- 
#       log_k           -11.385

#CO2                 137
#       CO2 (g) + H2O = H2CO3 
#        -1.468 -4.776  108.38650       0.01985076      -6919.530       -40.45154       -669365.0

#FeHPO4              138
        Fe+2 + HPO4-2 = FeHPO4
        log_k           3.6

#FeHPO4+             139
        Fe+3 + HPO4-2 = FeHPO4+ 
        log_k           5.43
        delta_h 5.76 kcal
        -gamma  5.5     0.0   

#FeHSO4+             148
        Fe+2 + HSO4- = FeHSO4+
        log_k           1.08

#O2calc              151
#       0.5H2O = 0.25O2(aq) + H+ + e- 
#       log_k           -20.780
#       delta_h 33.457 kcal

#OH-                 152
        H2O = OH- +  H+
        log_k           -14.0
        delta_h 13.362 kcal
        -analytical     -283.971        -0.05069842     13323.0         102.24447       -1119669.0
        -gamma  3.5     0.0 

#FeH2PO4+2           156
        Fe+3 + H2PO4- = FeH2PO4+2
        log_k           5.43
        -gamma  5.4     0.0

#FeHSO4+2            159
        Fe+3 + HSO4- = FeHSO4+2 
        log_k           2.48

#CaF+                160
        Ca+2 + F- = CaF+ 
        log_k           0.94
        delta_h 4.12 kcal
        -gamma  5.5     0.0

#BF(OH)3-            161
        H3BO3 + F- = BF(OH)3-
        log_k           -0.4
        delta_h 1.85 kcal
        -gamma  2.5     0.0

#BF2(OH)2-           162
        H3BO3 + H+ + 2F- = BF2(OH)2- + H2O 
        log_k           7.63
        delta_h 1.618 kcal
        -gamma  2.5     0.0

#BF3OH-              163
        H3BO3 + 2H+ + 3F- = BF3OH- + 2H2O 
        log_k           13.67
        delta_h -1.614 kcal
        -gamma  2.5     0.0

#BF4-                164
        H3BO3 + 3H+ + 4F- = BF4- + 3H2O 
        log_k           20.28
        delta_h -1.846 kcal
        -gamma  2.5     0.0

#FeF+2               165
        Fe+3 + F- = FeF+2 
        log_k           6.2
        delta_h 2.7 kcal
        -gamma  5.0     0.0

#FeF2+               166
        Fe+3 + 2F- = FeF2+
        log_k           10.8
        delta_h 4.8 kcal
        -gamma  5.0     0.0

#FeF3                167
        Fe+3 + 3F- = FeF3
        log_k           14.0
        delta_h 5.4 kcal

#CaHSO4+             168
        Ca+2 + HSO4- = CaHSO4+ 
        log_k           1.08

#Mn+3 secondary master species   169
        Mn+2 = Mn+3 + e- 
        log_k           -25.51
        delta_h 25.8 kcal
        -gamma  9.0     0.0

#MnCl+               170
        Mn+2 + Cl- = MnCl+ 
        log_k           0.61
        -gamma  5.0     0.0

#MnCl2               171
        Mn+2 + 2Cl- = MnCl2
        log_k           0.25

#MnCl3-              172
        Mn+2 + 3Cl- = MnCl3-
        log_k           -0.31
        -gamma  5.0     0.0

#MnOH+               173
        Mn+2 + H2O = MnOH+ + H+ 
        log_k           -10.59
        delta_h 14.4 kcal
        -gamma  5.0     0.0

#Mn(OH)3-            174
        Mn+2 + 3H2O = Mn(OH)3- + 3H+ 
        log_k           -34.8
        -gamma  5.0     0.0

#MnF+                175
        Mn+2 + F- = MnF+ 
        log_k           0.84
        -gamma  5.0     0.0

#MnSO4               176
        Mn+2 + SO4-2 = MnSO4 
        log_k           2.25
        delta_h 3.37 kcal

#Mn(NO3)2            177
        Mn+2 + 2NO3- = Mn(NO3)2 
        log_k           0.6
        delta_h -0.396 kcal

#MnHCO3+             178
        Mn+2 + HCO3- = MnHCO3+
        log_k           1.95
        -gamma  5.0     0.0

#MnO4- secondary master species   179
        Mn+2 + 4H2O = MnO4- + 8H+ + 5e- 
        log_k           -127.824
        delta_h 176.62 kcal
        -gamma  3.0     0.0

#MnO4-2 secondary master species   180
        Mn+2 + 4H2O = MnO4-2 + 8H+ + 4e- 
        log_k           -118.44
        delta_h 150.02 kcal
        -gamma  5.0     0.0

#SiF6-2              201
        H4SiO4 + 4H+ + 6F- = SiF6-2 + 4H2O 
        log_k           30.18
        delta_h -16.26 kcal
        -gamma  5.0     0.0

#HF                  202
        H+ + F- = HF 
        log_k           3.18
        delta_h 3.18 kcal
        -analytical     -2.033          0.012645        429.01          0.0     0.0

#HF2-                203
        H+ + 2F- = HF2- 
        log_k           3.76
        delta_h 4.55 kcal
        -gamma  3.5     0.0

#CuCl2-              206
#       Cu+2 + 2Cl- + e- = CuCl2-
#       log_k           8.220
#       delta_h 1.230 kcal
        Cu+ + 2Cl- = CuCl2-
        log_k           5.50
        delta_h -0.42 kcal
        -gamma  4.0     0.0

#CuCl3-2             207
#       Cu+2 + 3Cl- + e- = CuCl3-2 
#       log_k           8.420
#       delta_h 1.910 kcal
        Cu+ + 3Cl- = CuCl3-2
        log_k           5.70
        delta_h 0.26 kcal
        -gamma  5.0     0.0

#Cu+ secondary master species  208
        Cu+2 + e- = Cu+ 
        log_k           2.72
        delta_h 1.65 kcal
        -gamma  2.5     0.0

#CuCO3               209
        Cu+2 + CO3-2 = CuCO3 
        log_k           6.73

#Cu(CO3)2-2          210
        Cu+2 + 2CO3-2 = Cu(CO3)2-2 
        log_k           9.83

#CuCl+               211
        Cu+2 + Cl- = CuCl+ 
        log_k           0.43
        delta_h 8.65 kcal
        -gamma  4.0     0.0

#CuCl2               212
        Cu+2 + 2Cl- = CuCl2 
        log_k           0.16
        delta_h 10.56 kcal

#CuCl3-              213
        Cu+2 + 3Cl- = CuCl3-
        log_k           -2.29
        delta_h 13.69 kcal
        -gamma  4.0     0.0

#CuCl4-2             214
        Cu+2 + 4Cl- = CuCl4-2
        log_k           -4.59
        delta_h 17.78 kcal
        -gamma  5.0     0.0

#CuF+                215
        Cu+2 + F- = CuF+ 
        log_k           1.26
        delta_h 1.62 kcal

#CuOH+               216
        Cu+2 + H2O = CuOH+ + H+ 
        log_k           -8.0
        -gamma  4.0     0.0

#Cu(OH)2             217
        Cu+2 + 2H2O = Cu(OH)2 + 2H+ 
        log_k           -13.68

#Cu(OH)3-            218
        Cu+2 + 3H2O = Cu(OH)3- + 3H+ 
        log_k           -26.9

#Cu(OH)4-2           219
        Cu+2 + 4H2O = Cu(OH)4-2 + 4H+ 
        log_k           -39.6

#Cu2(OH)2+2          220
        2Cu+2 + 2H2O = Cu2(OH)2+2 + 2H+ 
        log_k           -10.359
        delta_h 17.539 kcal
        -analytical     2.497   0.0     -3833.0         0.0     0.0

#CuSO4               221
        Cu+2 + SO4-2 = CuSO4 
        log_k           2.31
        delta_h 1.22 kcal

#Cu(HS)3-            222
        Cu+2 + 3HS- = Cu(HS)3-
        log_k           25.9

#ZnCl+               251
        Zn+2 + Cl- = ZnCl+ 
        log_k           0.43
        delta_h 7.79 kcal
        -gamma  4.0     0.0

#ZnCl2               252
        Zn+2 + 2Cl- = ZnCl2
        log_k           0.45
        delta_h 8.5 kcal

#ZnCl3-              253
        Zn+2 + 3Cl- = ZnCl3-
        log_k           0.5
        delta_h 9.56 kcal
        -gamma  4.0     0.0

#ZnCl4-2             254
        Zn+2 + 4Cl- = ZnCl4-2
        log_k           0.2
        delta_h 10.96 kcal
        -gamma  5.0     0.0

#ZnF+                255
        Zn+2 + F- = ZnF+ 
        log_k           1.15
        delta_h 2.22 kcal

#ZnOH+               256
        Zn+2 + H2O = ZnOH+ + H+ 
        log_k           -8.96
        delta_h 13.4 kcal

#Zn(OH)2             257
        Zn+2 + 2H2O = Zn(OH)2 + 2H+ 
        log_k           -16.9

#Zn(OH)3-            258
        Zn+2 + 3H2O = Zn(OH)3- + 3H+ 
        log_k           -28.4

#Zn(OH)4-2           259
        Zn+2 + 4H2O = Zn(OH)4-2 + 4H+ 
        log_k           -41.2

#ZnOHCl              260
        Zn+2 + H2O + Cl- = ZnOHCl + H+ 
        log_k           -7.48

#Zn(HS)2             261
        Zn+2 + 2HS- = Zn(HS)2
        log_k           14.94

#Zn(HS)3-            262
        Zn+2 + 3HS- = Zn(HS)3-
        log_k           16.1

#ZnSO4               263
        Zn+2 + SO4-2 = ZnSO4 
        log_k           2.37
        delta_h 1.36 kcal

#Zn(SO4)2-2          264
        Zn+2 + 2SO4-2 = Zn(SO4)2-2 
        log_k           3.28

#CdCl+               294
        Cd+2 + Cl- = CdCl+ 
        log_k           1.98
        delta_h 0.59 kcal

#CdCl2               295
        Cd+2 + 2Cl- = CdCl2
        log_k           2.6
        delta_h 1.24 kcal

#CdCl3-              296
        Cd+2 + 3Cl- = CdCl3-
        log_k           2.4
        delta_h 3.9 kcal

#CdF+                297
        Cd+2 + F- = CdF+ 
        log_k           1.1

#CdF2                298
        Cd+2 + 2F- = CdF2
        log_k           1.5

#Cd(CO3)2-2          299
        Cd+2 + 2CO3-2 = Cd(CO3)2-2
        log_k           6.4

#CdOH+               300
        Cd+2 + H2O = CdOH+ + H+ 
        log_k           -10.08
        delta_h 13.1 kcal

#Cd(OH)2             301
        Cd+2 + 2H2O = Cd(OH)2 + 2H+ 
        log_k           -20.35

#Cd(OH)3-            302
        Cd+2 + 3H2O = Cd(OH)3- + 3H+ 
        log_k           -33.3

#Cd(OH)4-2           303
        Cd+2 + 4H2O = Cd(OH)4-2 + 4H+ 
        log_k           -47.35

#Cd2OH+3             304
        2Cd+2 + H2O = Cd2OH+3 + H+ 
        log_k           -9.39
        delta_h 10.9 kcal

#CdOHCl              305
        Cd+2 + H2O + Cl- = CdOHCl + H+ 
        log_k           -7.404
        delta_h 4.355 kcal

#CdNO3+              306
        Cd+2 + NO3- = CdNO3+
        log_k           0.4
        delta_h -5.2 kcal

#CdSO4               307
        Cd+2 + SO4-2 = CdSO4 
        log_k           2.46
        delta_h 1.08 kcal

#CdHS+               308
        Cd+2 + HS- = CdHS+ 
        log_k           10.17

#Cd(HS)2             309
        Cd+2 + 2HS- = Cd(HS)2 
        log_k           16.53

#Cd(HS)3-            310
        Cd+2 + 3HS- = Cd(HS)3-
        log_k           18.71

#Cd(HS)4-2           311
        Cd+2 + 4HS- = Cd(HS)4-2
        log_k           20.9

#Fe(SO4)2-           333
        Fe+3 + 2SO4-2 = Fe(SO4)2- 
        log_k           5.38
        delta_h 4.6 kcal

#Fe2(OH)2+4          334
        2Fe+3 + 2H2O = Fe2(OH)2+4 + 2H+ 
        log_k           -2.95
        delta_h 13.5 kcal

#Fe3(OH)4+5          335
        3Fe+3 + 4H2O = Fe3(OH)4+5 + 4H+ 
        log_k           -6.3
        delta_h 14.3 kcal

#PbCl+               341
        Pb+2 + Cl- = PbCl+ 
        log_k           1.6
        delta_h 4.38 kcal

#PbCl2               342
        Pb+2 + 2Cl- = PbCl2
        log_k           1.8
        delta_h 1.08 kcal

#PbCl3-              343
        Pb+2 + 3Cl- = PbCl3-
        log_k           1.7
        delta_h 2.17 kcal

#PbCl4-2             344
        Pb+2 + 4Cl- = PbCl4-2
        log_k           1.38
        delta_h 3.53 kcal

#Pb(CO3)2-2          345
        Pb+2 + 2CO3-2 = Pb(CO3)2-2 
        log_k           10.64

#PbF+                346
        Pb+2 + F- = PbF+ 
        log_k           1.25

#PbF2                347
        Pb+2 + 2F- = PbF2
        log_k           2.56

#PbF3-               348
        Pb+2 + 3F- = PbF3-
        log_k           3.42

#PbF4-2              349
        Pb+2 + 4F- = PbF4-2
        log_k           3.1

#PbOH+               350
        Pb+2 + H2O = PbOH+ + H+ 
        log_k           -7.71

#Pb(OH)2             351
        Pb+2 + 2H2O = Pb(OH)2 + 2H+ 
        log_k           -17.12

#Pb(OH)3-            352
        Pb+2 + 3H2O = Pb(OH)3- + 3H+ 
        log_k           -28.06

#Pb2OH+3             353
        2Pb+2 + H2O = Pb2OH+3 + H+ 
        log_k           -6.36

#PbNO3+              354
        Pb+2 + NO3- = PbNO3+
        log_k           1.17

#PbSO4               355
        Pb+2 + SO4-2 = PbSO4 
        log_k           2.75

#Pb(HS)2             356
        Pb+2 + 2HS- = Pb(HS)2 
        log_k           15.27

#Pb(HS)3-            357
        Pb+2 + 3HS- = Pb(HS)3-
        log_k           16.57

#Pb3(OH)4+2          358
        3Pb+2 + 4H2O = Pb3(OH)4+2 + 4H+ 
        log_k           -23.88
        delta_h 26.5 kcal

#FeF+                359
        Fe+2 + F- = FeF+ 
        log_k           1.0

#AlHSO4+2            397
        Al+3 + HSO4- = AlHSO4+2 
        log_k           0.46

#NO2 secondary master species   400
        NO3- + 2H+ + 2e- = NO2- + H2O 
        log_k           28.57
        delta_h -43.76 kcal

#NiBr+               403
        Ni+2 + Br- = NiBr+ 
        log_k           0.5

#NiCl+               404
        Ni+2 + Cl- = NiCl+ 
        log_k           0.4

#NiF+                405
        Ni+2 + F- = NiF+ 
        log_k           1.3

#NiOH+               406
        Ni+2 + H2O = NiOH+ + H+ 
        log_k           -9.86
        delta_h 12.42 kcal

#Ni(OH)2             407
        Ni+2 + 2H2O = Ni(OH)2 + 2H+ 