TITLE SEAWATER

SOLUTION 0
    temp      25
    pressure  1
    pH        7.0
    density   1.0
    units     mg/L  
    redox     S(6)/S(-2)
    Ca        300
    Cl        19000   charge
    Fe(3)     0.0034
    Mg        1240
    Na        11400 
    S(6)      2420
    S(-2)     200
    Alkalinity 1439.34 as HCO3

SELECTED_OUTPUT 1
    -file                 IW
    -reset                false
    -simulation           true
    -pH                   true
    -pe                   true
    -temperature          true
    -alkalinity           true
    -totals               Acetate  Ca  Mg  Na  Cl  Fe  S(6) S(-2)
    
END